
  EPA STORM WATER MANAGEMENT MODEL - VERSION 5.0 (Build 5.0.022)
  --------------------------------------------------------------

  
  ERROR 207: duplicate ID name 10030 at line 515 of [OUTFALL] section:
  10030            57.6000      FREE               NO           

  
  ERROR 207: duplicate ID name 10031 at line 517 of [OUTFALL] section:
  10031            55.8600      FIXED              2.0000       NO           

  
  ERROR 207: duplicate ID name 10032 at line 518 of [OUTFALL] section:
  10032            54.8400      TIDAL              DD               NO           

  
  ERROR 207: duplicate ID name 10033 at line 519 of [OUTFALL] section:
  10033            53.1100      TIMESERIES         EE               NO           

  
  ERROR 207: duplicate ID name 10029 at line 525 of [DIVIDER] section:
  10029            58.1200      3                OVERFLOW           2.9100       0.0000       0.0000       0.000000         

  
  ERROR 207: duplicate ID name 10030 at line 526 of [DIVIDER] section:
  10030            57.6000      4                CUTOFF             3.000000         2.2100       0.0000       0.0000       0.000000         

  
  ERROR 207: duplicate ID name 10032 at line 527 of [DIVIDER] section:
  10032            54.8400      5                TABULAR            SS               2.0000       0.0000       0.0000       0.000000         

  
  ERROR 207: duplicate ID name 10031 at line 528 of [DIVIDER] section:
  10031            55.8600      2                WEIR               1.000000         1.0000       1.0000       2.2000       0.0000       0.0000       0.000000         

  
  ERROR 207: duplicate ID name 10030 at line 534 of [STORAGE] section:
  10030            57.6000      2.2100       0.0000       TABULAR            GG               0.000000                                                             

  
  ERROR 207: duplicate ID name 10029 at line 535 of [STORAGE] section:
  10029            58.1200      2.9100       0.0000       FUNCTIONAL         1.0000       2.0000       0.0000       0.000000                                                             

  
  ERROR 207: duplicate ID name 20151 at line 665 of [OUTLET] section:
  20151            10032            10033            1.0000       TABULAR/DEPTH      AA                            

  
  ERROR 207: duplicate ID name 20152 at line 666 of [OUTLET] section:
  20152            10033            10034            2.0000       TABULAR/HEAD       BB                            

  
  ERROR 207: duplicate ID name 20153 at line 667 of [OUTLET] section:
  20153            10034            10051            3.0000       FUNCTIONAL/DEPTH                                          

  
  ERROR 207: duplicate ID name 20154 at line 668 of [OUTLET] section:
  20154            10051            10052            4.0000       FUNCTIONAL/HEAD                                           


  Analysis begun on:  Fri Apr 19 23:51:02 2013
  Analysis ended on:  Fri Apr 19 23:51:02 2013
  Total elapsed time: < 1 sec